#======================================================================

# CRYSTAL DATA

#----------------------------------------------------------------------

data_VESTA_phase_1


_chemical_name_common                  ''
_cell_length_a                         19.24851
_cell_length_b                         3.63720
_cell_length_c                         9.34499
_cell_angle_alpha                      90
_cell_angle_beta                       134.15976
_cell_angle_gamma                      90
_space_group_name_H-M_alt              'C 2/m'
_space_group_IT_number                 12

loop_
_space_group_symop_operation_xyz
   'x, y, z'
   '-x, -y, -z'
   '-x, y, -z'
   'x, -y, z'
   'x+1/2, y+1/2, z'
   '-x+1/2, -y+1/2, -z'
   '-x+1/2, y+1/2, -z'
   'x+1/2, -y+1/2, z'

loop_
   _atom_site_label
   _atom_site_occupancy
   _atom_site_fract_x
   _atom_site_fract_y
   _atom_site_fract_z
   _atom_site_adp_type
   _atom_site_U_iso_or_equiv
   _atom_site_type_symbol
   Ta1        1.0     0.000000      0.000000      0.000000     Uiso  0.000000 Ta
   Ta2        1.0     0.860200      0.500000      0.011300     Uiso  0.000000 Ta
   Te1        1.0     0.005500      0.000000      0.701700     Uiso  0.000000 Te
   Te2        1.0     0.851500      0.500000      0.714000     Uiso  0.000000 Te
   Te3        1.0     0.796600      0.500000      0.215700     Uiso  0.000000 Te

loop_
   _atom_site_aniso_label
   _atom_site_aniso_U_11
   _atom_site_aniso_U_22
   _atom_site_aniso_U_33
   _atom_site_aniso_U_12
   _atom_site_aniso_U_13
   _atom_site_aniso_U_23
   Ta1	 0.00000  0.00000  0.00000  0.00000  0.00000  0.00000
   Ta2	 0.00000  0.00000  0.00000  0.00000  0.00000  0.00000
   Te1	 0.00000  0.00000  0.00000  0.00000  0.00000  0.00000
   Te2	 0.00000  0.00000  0.00000  0.00000  0.00000  0.00000
   Te3	 0.00000  0.00000  0.00000  0.00000  0.00000  0.00000
